egret/models/tests/pglib_opf_case3_lmbd_acopf_0970.json
{"elements": {"bus": {"1": {"matpower_bustype": "ref", "area": 1.0, "vm": 1.0999999686207573, "va": 0.0, "base_kv": 240.0, "zone": 1.0, "v_min": 0.9, "v_max": 1.1, "lmp": 35.70514411481229, "qlmp": 6.453343869763598e-11, "pl": 106.70000000000002, "ql": 38.8}, "2": {"matpower_bustype": "PV", "area": 1.0, "vm": 0.926170537280815, "va": 0.14614322826710122, "base_kv": 240.0, "zone": 1.0, "v_min": 0.9, "v_max": 1.1, "lmp": 29.912494685465635, "qlmp": -1.2296190430989672e-11, "pl": 106.70000000000002, "ql": 38.8}, "3": {"matpower_bustype": "PV", "area": 1.0, "vm": 0.9, "va": -0.2819149571970284, "base_kv": 240.0, "zone": 1.0, "v_min": 0.9, "v_max": 1.1, "lmp": 41.99950345280163, "qlmp": -1.0936044055257921e-11, "pl": 92.14999999999999, "ql": 48.5}}, "load": {"load_1": {"in_service": true, "p_load": 106.70000000000002, "q_load": 38.8, "bus": "1"}, "load_2": {"in_service": true, "p_load": 106.70000000000002, "q_load": 38.8, "bus": "2"}, "load_3": {"in_service": true, "p_load": 92.14999999999999, "q_load": 48.5, "bus": "3"}}, "generator": {"1": {"bus": "1", "pg": 139.56883690260707, "qg": 53.322773414082015, "vg": 1.0, "mbase": 100.0, "in_service": true, "p_min": 0.0, "p_max": 2000.0, "q_min": -1000.0, "q_max": 1000.0, "generator_type": "thermal", "p_cost": {"data_type": "cost_curve", "cost_curve_type": "polynomial", "values": {"0": 0.0, "1": 5.0, "2": 0.11}}, "startup_cost": 0.0, "shutdown_cost": 0.0}, "2": {"bus": "2", "pg": 168.89702757927765, "qg": -9.793908440730236, "vg": 1.0, "mbase": 100.0, "in_service": true, "p_min": 0.0, "p_max": 2000.0, "q_min": -1000.0, "q_max": 1000.0, "generator_type": "thermal", "p_cost": {"data_type": "cost_curve", "cost_curve_type": "polynomial", "values": {"0": 0.0, "1": 1.2, "2": 0.08500000000000002}}, "startup_cost": 0.0, "shutdown_cost": 0.0}, "3": {"bus": "3", "pg": 0.0, "qg": -7.534506669850114, "vg": 1.0, "mbase": 100.0, "in_service": true, "p_min": 0.0, "p_max": 0.0, "q_min": -1000.0, "q_max": 1000.0, "generator_type": "thermal", "p_cost": {"data_type": "cost_curve", "cost_curve_type": "polynomial", "values": {"0": 0.0, "1": 0.0, "2": 0.0}}, "startup_cost": 0.0, "shutdown_cost": 0.0}}, "branch": {"1": {"from_bus": "1", "to_bus": "3", "resistance": 0.065, "reactance": 0.62, "charging_susceptance": 0.45, "branch_type": "line", "rating_long_term": 9000.0, "rating_short_term": 9000.0, "rating_emergency": 9000.0, "in_service": true, "angle_diff_min": -30.0, "angle_diff_max": 30.0, "pf": 48.2718951833103, "qf": 9.501455070026568, "pt": -46.29556832805754, "qt": -36.10033548834347, "pfl": 1.976326855252758, "qfl": -26.5988804183169, "pf_dual": 3570.514411481358, "qf_dual": 6.4844215813571646e-09}, "2": {"from_bus": "3", "to_bus": "2", "resistance": 0.025, "reactance": 0.75, "charging_susceptance": 0.7, "branch_type": "line", "rating_long_term": 50.0, "rating_short_term": 50.0, "rating_emergency": 50.0, "in_service": true, "angle_diff_min": -30.0, "angle_diff_max": 30.0, "pf": -45.85443167194245, "qf": -19.934171181506645, "pt": 46.52525114997792, "qt": -18.31395921647249, "pfl": 0.6708194780354726, "qfl": -38.24813039797913, "pf_dual": 3834.737661587219, "qf_dual": -158.76790250681802}, "3": {"from_bus": "1", "to_bus": "2", "resistance": 0.042, "reactance": 0.9, "charging_susceptance": 0.3, "branch_type": "line", "rating_long_term": 9000.0, "rating_short_term": 9000.0, "rating_emergency": 9000.0, "in_service": true, "angle_diff_min": -30.0, "angle_diff_max": 30.0, "pf": -15.403058280703222, "qf": 5.021318344055448, "pt": 15.671776429299717, "qt": -30.27994922425774, "pfl": 0.26871814859649457, "qfl": -25.258630880202293, "pf_dual": 3570.514411481186, "qf_dual": 6.471006801517679e-09}}}, "system": {"model_name": "pglib_opf_case3_lmbd", "mpc_version": "'2'", "baseMVA": 100.0, "reference_bus": "1", "reference_bus_angle": 0.0, "total_cost": 5467.988747021087, "ploss": 2.915864481884725, "qloss": -90.10564169649832, "mult": 0.97}, "results": {"time": 0.021959781646728516, "#_cons": 36, "#_vars": 23, "termination": "optimal"}}